# ================================================================
# Orca input file made in Gabedit
# ================================================================
!  HF 
! PrintBasis 3-21G 
%output
     print[p_mos] 1
 end #output
* xyz -1   2
 C  -0.739000 1.189000 -0.007334
 C  0.614000 1.208000 0.351666
 C  1.353000 0.019000 0.358666
 C  0.739000 -1.189000 0.006666
 C  -0.614000 -1.208000 -0.351334
 C  -1.353000 -0.019000 -0.358334
 H  -1.309000 2.106000 -0.012334
 H  1.088000 2.140000 0.622666
 H  2.397000 0.034000 0.634666
 H  1.309000 -2.106000 0.012666
 H  -1.088000 -2.140000 -0.622334
 H  -2.397000 -0.034000 -0.635334
*
%geom Constraints
  {C 0 C}
  {C 1 C}
  {C 2 C}
  {C 3 C}
  {C 4 C}
  {C 5 C}
  {C 6 C}
  {C 7 C}
  {C 8 C}
  {C 9 C}
  {C 10 C}
  {C 11 C}
 end #Constraints
 invertConstraints true
 end #geom
